<?xml version="1.0" encoding="UTF-8"?>

<configuration>
    <input>
        <net-file value="second.net.xml"/>
        <route-files value="second.rou.xml"/>
    </input>

    <time>
        <begin value="0"/>
        <end value="1000"/>
        <step-length value="0.1"/>]
        <delay value="500"/>
    </time>
    
    <viewsettings>
        <scheme name="real world"/>
    </viewsettings>

    <gui_only>
        <gui-settings-file value="osm.view.xml"/>
    </gui_only>

</configuration>
